version 2
run General-0-20190216-20:10:45-16248
attr configname General
attr datetime 20190216-20:10:45
attr experiment General
attr inifile omnetpp.ini
attr iterationvars ""
attr iterationvarsf ""
attr measurement ""
attr network TicToc
attr processid 16248
attr repetition 0
attr replication #0
attr resultdir results
attr runnumber 0
attr seedset 0
param TicToc.tic.delayTimeTic "uniform(500ms, 3000ms)"
param TicToc.toc.delayTimeToc "uniform(500ms, 2000ms)"
param TicToc.tic.counter 500

vector 0 TicToc.toc TocDelayVector ETV
vector 1 TicToc.tic TicDelayVector ETV
vector 2 TicToc.tic RTTVector ETV
0	1	2	1.507721540285
0	5	9.727769209072	0.764293588698
0	9	15.211052799365	0.596914423397
0	13	21.047352461029	1.779516816023
0	17	28.260294140085	1.247614469845
0	21	35.264191799216	1.506223091041
0	25	43.040275718902	1.824812433217
0	29	49.483853203712	0.660182881285
0	33	56.998468096486	0.764039619127
0	37	63.044120150852	1.980318843271
0	41	70.162556025317	1.778197392006
0	45	78.242156108958	0.663984637707
0	49	84.445488318451	1.934745498351
0	53	91.733971128356	1.049601015518
0	57	99.522705434006	0.997059778078
0	61	105.423526731785	1.52798091108
0	65	112.720483431709	1.819535297342
0	69	120.399944256992	1.89437040966
0	73	129.183973980719	0.758862140239
0	77	135.35074717796	1.04925929266
0	81	142.358788125567	0.918379091541
0	85	149.167168336688	1.143250188907
0	89	155.889767391491	0.895266270847
0	93	163.069205551641	1.776169023477
0	97	169.507302797051	1.834049797966
0	101	177.853510046262	0.797318435623
0	105	184.860990507878	0.98196043924
0	109	192.376359606745	1.762076876126
0	113	200.079986240017	0.834633179009
0	117	205.560271895375	0.573182610678
0	121	211.728744799504	0.724341973313
0	125	217.913313058787	1.490551566123
0	129	225.141169390292	1.005171074648
0	133	231.443475970067	1.323180054198
0	137	239.644828635617	0.630634164321
0	141	246.057181822019	1.480276667746
0	145	253.433607375016	1.637359493063
0	149	260.659028484253	1.190277537331
0	153	266.432844316587	0.77625321364
0	157	274.16973490396	0.670000043581
0	161	280.466860618442	1.046651899815
0	165	288.086134672631	1.020542474696
0	169	293.829666306265	0.718393652351
0	173	300.7051941955	1.832191432593
0	177	309.47335859749	1.30993586767
0	181	317.678021973232	1.017658457044
0	185	325.086650584476	0.809582683723
0	189	330.683610958746	0.930720752804
0	193	338.017937653466	1.979353937786
0	197	345.88783385756	0.517083429266
0	201	351.505841567997	1.467533216113
0	205	357.937655131333	1.408800853533
0	209	364.205379765016	0.662920029834
0	213	369.614515814582	0.52380976826
0	217	375.165263183649	1.70511383831
0	221	383.550300877542	1.376658468042
0	225	389.486344635371	1.46305357432
0	229	395.483914490557	0.744161124108
0	233	401.843307562289	1.502568087424
0	237	409.3280811687	1.094041389413
0	241	415.695984030957	1.580997779616
0	245	423.877664977801	1.168510308256
0	249	430.208458273089	0.664759350824
0	253	436.497013896936	1.244101869874
0	257	443.259442310082	1.273446588777
0	261	450.058088392019	0.814763088245
0	265	457.445491900202	0.768539570272
0	269	465.158572397428	1.59896836977
0	273	471.526817318169	1.81564853969
0	277	479.652858921793	0.501387230819
0	281	485.771092176554	1.590856420808
0	285	493.877408560948	1.478331838851
0	289	500.604101375794	1.876376350876
0	293	508.504479509779	1.690114279394
0	297	516.931781179738	0.672560895211
0	301	522.938854086446	0.696868718951
0	305	530.434188567102	0.807132860529
0	309	536.928059530328	0.948114808067
0	313	543.055099120946	1.124325685087
0	317	550.861967496458	0.583001357852
0	321	556.803639412974	1.86111120088
0	325	564.278841513791	0.733704692218
0	329	570.625566134462	0.600533467252
0	333	576.586149906623	0.960959207499
0	337	582.706722414353	1.460680833901
0	341	589.31771880132	1.089364369866
0	345	595.520713719073	0.84750893584
0	349	601.237677239347	0.814423121745
0	353	606.655309549766	1.95300008764
0	357	614.397375668283	1.225538553437
0	361	622.201188537292	1.374568102765
0	365	628.609138268395	1.576953839976
0	369	637.149420791305	0.561277658446
0	373	644.398314377293	0.912998178974
0	377	650.664632474072	1.620343254879
0	381	658.555970896268	1.361668001045
0	385	664.534922832273	1.424109737156
0	389	671.619638580828	1.912590323715
0	393	679.683286655694	1.542805335368
0	397	686.197044270346	0.945645531174
0	401	693.4631284012	1.906027614838
0	405	701.317491732888	0.671404397581
0	409	708.243601068972	1.943006894202
0	413	716.253628971406	1.426600682666
0	417	723.79188092123	0.660532402806
0	421	729.504818251475	1.419606057112
0	425	737.769265992685	1.841198919457
0	429	745.863747895697	1.872793841991
0	433	753.48562473478	1.104280211031
0	437	761.249278790435	1.153162495582
0	441	767.769911100274	1.45473651425
0	445	775.28473150707	0.749192918185
0	449	780.692460591673	1.482227804721
0	453	788.667880697991	1.168660275522
0	457	794.48617286142	1.14893717505
0	461	802.496539040701	1.927230039844
0	465	809.306001569027	0.6586187504
0	469	816.718589843017	0.876964071998
0	473	824.418064014053	1.685637290124
0	477	831.811570538672	1.848386832047
0	481	839.683998988823	0.609108732198
0	485	846.438374947289	0.554986264789
0	489	853.373478625317	0.829434046173
0	493	859.581801152437	0.933386004181
0	497	865.448132104588	0.749820967205
0	501	871.534176393178	1.375091819791
0	505	879.429637383319	1.797924030339
0	509	887.03993170522	1.220218319213
0	513	894.906334492144	1.159838727559
0	517	901.455546201904	1.635164427687
0	521	908.978050369186	1.485444030026
0	525	915.803571860538	0.618580850656
0	529	922.435801280429	0.661084674532
0	533	928.550305740908	1.432739683893
0	537	934.647394884029	1.567841306562
0	541	941.071446724819	1.635121281841
0	545	947.706245770679	0.823164000874
0	549	954.819775880315	1.628234685748
0	553	961.645062481985	1.23636671016
0	557	967.811919295462	1.247007693397
0	561	974.554662006209	1.671625705785
0	565	982.329867637134	1.842464558897
0	569	991.08937066095	0.965035987785
0	573	999.009603907122	1.895001981524
0	577	1006.914668187849	1.056869256776
0	581	1013.358353317134	0.672140009119
0	585	1018.758227772779	0.687596448115
0	589	1025.073829107453	1.761962556047
0	593	1033.56682227843	0.824366652058
0	597	1041.252545407392	1.940180187463
0	601	1049.330604735181	0.505031538429
0	605	1055.198768632255	0.931926466874
0	609	1062.139214267257	1.571227401611
0	613	1068.709295354435	1.674050381524
0	617	1076.263849732584	1.608382093953
0	621	1083.218043091709	1.465492747957
0	625	1090.418948218694	1.912703676382
0	629	1097.012298947551	1.409886778682
0	633	1105.297905665824	1.515360922785
0	637	1113.197302836693	1.411698992597
0	641	1119.2403580111	1.752162473626
0	645	1126.462470965811	1.395532439114
0	649	1134.081068565256	1.443802386522
0	653	1140.97618099698	1.154045405448
0	657	1147.482978558052	0.656070936122
0	661	1153.767571788631	1.578716211254
0	665	1160.800064341515	1.316002424457
0	669	1168.088597090217	1.277318847133
0	673	1174.170838666615	1.028509264812
0	677	1180.794249120635	1.571636009612
0	681	1188.573465133669	1.221255310462
0	685	1195.455238755794	1.676888020709
0	689	1202.154529464433	0.925317665213
0	693	1209.590103102501	0.864828685182
0	697	1216.049121303253	1.428103708779
0	701	1222.916531471072	1.605149002164
0	705	1230.347469066039	1.167280305526
0	709	1236.267446341693	1.372667301213
0	713	1242.940455447767	1.195596500649
0	717	1250.723360337434	0.950643360033
0	721	1256.67766261811	1.984696163679
0	725	1263.672546738759	1.051098719472
0	729	1270.765262074536	1.9459774805
0	733	1278.275328241871	1.306421573507
0	737	1286.298036648078	0.850466772215
0	741	1293.615365476581	0.624533425784
0	745	1299.728916481487	1.296777340001
0	749	1307.221622560988	0.918290238129
0	753	1313.267421111581	1.646748994594
0	757	1321.825929367333	0.68449409306
0	761	1329.206059070653	1.374890344334
0	765	1336.867552513722	0.565537008806
0	769	1343.744033228023	1.715995255392
0	773	1350.986698731081	1.335109692882
0	777	1358.941221317043	0.914276950411
0	781	1366.308068072307	1.735209192615
0	785	1374.310487225885	0.868199723191
0	789	1380.927462826251	1.26253309974
0	793	1388.494134918438	0.657208388671
0	797	1396.028467531549	1.092873244081
0	801	1402.712470623549	1.256324644317
0	805	1410.211531355629	0.999090911238
0	809	1416.398793166388	1.150257236441
0	813	1424.545860631742	1.196964042378
0	817	1431.712508811966	1.765219904715
0	821	1439.506421299187	0.660383264651
0	825	1446.405894804282	1.97785676748
0	829	1452.948469173397	1.528754855506
0	833	1460.334583946505	1.42130447377
0	837	1466.7342034349	0.965003098594
0	841	1474.135558066425	0.968756083515
0	845	1479.693004491157	0.568083725753
0	849	1486.609260762343	0.698145795846
0	853	1493.988585822051	1.792289109435
0	857	1500.282808984629	1.327978193644
0	861	1508.08746179589	1.626837609685
0	865	1516.600437932065	1.206227173796
0	869	1523.177330865291	0.94403251214
0	873	1528.733613787451	1.270449367585
0	877	1536.371594367665	0.91212429048
0	881	1542.100135745014	0.794350271695
0	885	1548.469920592032	0.773780094692
0	889	1555.242660813497	1.76153184392
0	893	1562.257668150819	1.327419518144
0	897	1569.839235468765	0.858064997825
0	901	1575.536659411502	1.651005726308
0	905	1583.084801119634	0.99726179766
0	909	1588.890141287584	1.814265659079
0	913	1595.561705683589	1.006887229509
0	917	1603.259811521739	1.265896362136
0	921	1609.215578305184	1.930096260621
0	925	1615.990385241222	1.229727026075
0	929	1623.669314672819	1.743404136738
0	933	1630.936918204299	1.340684135561
0	937	1638.761752350836	1.377219688497
0	941	1644.860662478836	1.393915214459
0	945	1652.148078323806	1.726314212894
0	949	1660.515513870398	1.781023119111
0	953	1668.06603028695	0.883465704392
0	957	1675.61392796412	0.707237483817
0	961	1682.725295439245	0.83833398798
0	965	1690.398687527514	1.818698787596
0	969	1698.076369747402	1.811898037558
0	973	1706.073682932182	0.663054116885
0	977	1712.321741226943	1.334255111404
0	981	1718.231442401185	0.756698416546
0	985	1724.948044719872	0.99071787647
0	989	1730.901027887477	0.844563603867
0	993	1736.695957483491	1.127447468694
0	997	1744.083088848856	0.726089706295
0	1001	1751.034349477733	1.477060134406
0	1005	1758.793621588963	0.569302032236
0	1009	1764.885517742949	0.533010735293
0	1013	1772.203716765156	1.774871648406
0	1017	1779.1086943174	0.524235352757
0	1021	1785.470344689091	1.567540494725
0	1025	1792.383921297615	1.100295478362
0	1029	1799.690114551223	0.586841386394
0	1033	1805.531855692155	0.774395088549
0	1037	1810.842610114603	0.89090595243
0	1041	1817.609178073936	1.13719439588
0	1045	1823.871059805619	1.199495795532
0	1049	1831.868314113001	1.478988506831
0	1053	1839.429536982554	1.863367968937
0	1057	1846.758870292802	1.485830913531
0	1061	1855.063586705595	1.459130598465
0	1065	1863.024792169219	1.899102350581
0	1069	1871.169265579315	1.900801277137
0	1073	1878.29121999489	1.422848239425
0	1077	1884.808882913668	1.676684169332
0	1081	1892.716848351876	1.038258158602
0	1085	1898.515740761068	1.030961125507
0	1089	1905.296782897669	1.133015654632
0	1093	1913.414635745925	1.631817029789
0	1097	1921.418205706752	0.863743158872
0	1101	1927.581366459722	0.570677655865
0	1105	1932.929967936709	0.692490373855
0	1109	1940.372852925094	0.693754456704
0	1113	1947.812535533331	0.571796091972
0	1117	1954.836906663025	0.98145118414
0	1121	1961.176848304341	1.830882719951
0	1125	1968.614174057496	0.901308992296
0	1129	1974.85464466887	0.889436576515
0	1133	1982.161095695685	0.664208220784
0	1137	1987.667183200711	0.927233035211
0	1141	1994.790369664784	1.756350988522
0	1145	2002.83448126493	1.04231126525
0	1149	2008.578938134015	1.884893944138
0	1153	2017.173012302607	0.616847156663
0	1157	2024.01620362245	0.658788180794
0	1161	2030.635888532503	0.526953946915
0	1165	2037.001317742746	0.837224578834
0	1169	2042.369217536528	1.170191156096
0	1173	2049.32988931227	1.284041350707
0	1177	2056.090469601098	1.012977107195
0	1181	2063.721620499971	0.644469337189
0	1185	2070.859091884689	0.912427533767
0	1189	2078.674066427862	0.888105342397
0	1193	2085.591836806619	1.677009152481
0	1197	2092.318226967122	1.290494836401
0	1201	2098.757587193044	0.792774628266
0	1205	2104.854569731279	0.661025703303
0	1209	2111.888947089668	1.153360919678
0	1213	2119.961436768412	0.699998742319
0	1217	2127.500093292678	1.211530163651
0	1221	2135.664110073587	1.627524285577
0	1225	2143.805070188595	1.19644959853
0	1229	2150.640348072163	1.055934462231
0	1233	2158.409879350103	0.538134324132
0	1237	2163.771698823432	0.96160811733
0	1241	2170.270274593961	1.029679743107
0	1245	2177.373606324196	1.872182219406
0	1249	2184.064485439449	0.825421991292
0	1253	2191.457942854031	0.969295547693
0	1257	2199.278511874028	1.651040557656
0	1261	2207.380642902222	1.449535631342
0	1265	2215.344203684712	1.211562762619
0	1269	2222.462064945954	1.407528345822
0	1273	2229.352742269751	1.32310325501
0	1277	2236.040132058085	1.952652234468
0	1281	2242.740795277641	0.664328751853
0	1285	2249.745106536429	1.623592859716
0	1289	2257.079004907049	1.024529602495
0	1293	2264.927046514349	1.558720999979
0	1297	2273.067503874306	0.534139657859
0	1301	2280.408146574511	1.036713627051
0	1305	2287.506610394921	0.588459714316
0	1309	2294.212642718339	0.528065414168
0	1313	2300.06924747047	1.183755878825
0	1317	2307.064608495915	0.893220224534
0	1321	2312.718152485555	1.759496473707
0	1325	2321.0255355353	0.933552550152
0	1329	2328.898524579476	0.658637807355
0	1333	2336.51427645958	1.532584510045
0	1337	2343.952307298197	0.568548955256
0	1341	2349.656611447688	1.247034616768
0	1345	2357.266508091357	0.597741359961
0	1349	2363.507108165765	1.398212390952
0	1353	2370.863554681883	1.00162556977
0	1357	2376.848419984219	1.13929742761
0	1361	2383.241296542807	1.499365998199
0	1365	2389.7887411596	0.628294056398
0	1369	2397.120923929846	1.933872289839
0	1373	2403.641617302199	0.732724966132
0	1377	2411.099345542838	0.699085969129
0	1381	2417.420675019383	0.856854060781
0	1385	2423.86059455003	1.661520036636
0	1389	2430.680261243599	0.536630556569
0	1393	2436.039986861635	0.987768577063
0	1397	2443.707903425208	1.360345556051
0	1401	2451.936350249334	1.89573330991
0	1405	2458.768262494004	0.721453281003
0	1409	2464.396496627943	1.803272396326
0	1413	2472.782469094146	1.577668061247
0	1417	2479.619570843174	1.439280406688
0	1421	2487.181930962015	0.657158499584
0	1425	2494.558200217431	0.765559424763
0	1429	2502.198949638868	0.516419249354
0	1433	2507.777358551624	0.92959894822
0	1437	2514.186256617888	1.622252638801
0	1441	2521.630183718631	1.370411492535
0	1445	2528.144891844129	0.72413983813
0	1449	2533.568291126166	0.683797435369
0	1453	2539.153834105467	1.47281038342
0	1457	2547.186849969553	1.471718126792
0	1461	2554.402960803358	1.887542677927
0	1465	2561.959205447811	1.669893886545
0	1469	2569.385071424068	1.604365310282
0	1473	2576.255541338468	1.106745948666
0	1477	2582.935582630801	1.145469313487
0	1481	2590.945937293813	1.366408107337
0	1485	2598.842730636125	1.565985393943
0	1489	2606.18588213797	1.887703564367
0	1493	2612.587946694691	0.559529863647
0	1497	2618.520281348026	1.577696766821
0	1501	2626.920788404763	1.09764036769
0	1505	2634.634342687202	0.554920842638
0	1509	2641.886541373792	0.624193731695
0	1513	2648.33766461501	1.418024719926
0	1517	2654.833723135639	0.548645431525
0	1521	2661.913648949817	1.129903985886
0	1525	2669.844089834832	1.565697245067
0	1529	2677.781666167311	0.627605478512
0	1533	2683.918971220029	0.827446748968
0	1537	2689.656976179566	1.532359323581
0	1541	2696.081236948256	0.722586561111
0	1545	2701.460457908685	0.561859123991
0	1549	2706.8898318666	1.268826987012
0	1553	2712.941789088651	0.526533443248
0	1557	2718.157614558816	0.571950686746
0	1561	2723.554740743709	0.980061041308
0	1565	2729.083025469442	1.936444717576
0	1569	2737.199600834746	0.563501271536
0	1573	2743.380690818068	1.676762761548
0	1577	2749.66320905776	1.878694208688
0	1581	2757.289139029451	0.54048470757
0	1585	2764.541712848584	1.259863731451
0	1589	2771.193178124607	1.101167109329
0	1593	2779.176628277052	1.324273239821
0	1597	2787.087215663746	1.618372136494
0	1601	2794.070067284975	0.794817956747
0	1605	2800.261179278369	0.643729864038
0	1609	2807.567792872314	1.972214874229
0	1613	2816.140207308808	1.51835044066
0	1617	2823.538016799836	1.557192067499
0	1621	2830.784813446457	1.910289892578
0	1625	2839.67551336449	1.271400377969
0	1629	2846.391981377498	0.69991067471
0	1633	2853.239249146542	1.45951753261
0	1637	2859.945611883419	1.828903296147
0	1641	2866.538163831456	1.980641262955
0	1645	2873.335246028959	1.355297402595
0	1649	2880.077926711177	1.140882929554
0	1653	2885.906807761404	0.884003876708
0	1657	2893.470982358206	1.404863627744
0	1661	2900.998287026186	1.214190188213
0	1665	2908.403118241343	1.016758359037
0	1669	2914.770776354821	0.660352438805
0	1673	2922.063308682639	1.287583384779
0	1677	2929.205268748101	0.838456813945
0	1681	2936.123354658714	1.046760982252
0	1685	2942.559274716416	0.894698711229
0	1689	2948.589468735733	0.506900950801
0	1693	2953.928523653417	0.513808265561
0	1697	2959.721580796057	1.431398757151
0	1701	2966.01894153305	1.088630432612
0	1705	2972.435589844474	1.417489246931
0	1709	2979.111744429331	1.080863730051
0	1713	2986.024987110283	1.867124306969
0	1717	2993.002206152418	0.742220832617
0	1721	2999.651215976916	1.90366622631
0	1725	3008.313084410384	1.344371256186
0	1729	3015.399007395023	1.173058430199
0	1733	3022.758594627606	1.171778591815
0	1737	3030.022376592501	1.530454182299
0	1741	3038.111237495553	1.676810767851
0	1745	3046.033946778623	0.666095424094
0	1749	3053.299951761609	1.185434684623
0	1753	3059.179798678027	1.397286229767
0	1757	3066.379059621946	0.983530859347
0	1761	3073.787744313128	1.1303157371
0	1765	3080.043723710695	1.527777496958
0	1769	3086.752436470006	1.832512838766
0	1773	3094.925391159717	1.323634226923
0	1777	3101.348792148519	1.632481559645
0	1781	3109.194467819526	0.731500922935
0	1785	3116.728061364146	0.845807975624
0	1789	3124.088155797331	0.818590528215
0	1793	3130.034370505597	1.027217705734
0	1797	3136.590816254957	1.814787245705
0	1801	3144.601267426155	1.998587072361
0	1805	3151.924135462377	1.953089089133
0	1809	3158.722903270969	1.605408593197
0	1813	3165.953615095695	0.696003683144
0	1817	3173.065023840284	0.83847306855
0	1821	3179.6115423775	1.243501458783
0	1825	3186.883250431968	1.436413546791
0	1829	3193.705836330652	1.073837170145
0	1833	3201.503877622537	0.721670969855
0	1837	3208.364941917705	1.704703094321
0	1841	3215.382571837046	1.170845624874
0	1845	3222.262022461621	1.400121738203
0	1849	3228.893316637487	0.705511831562
0	1853	3235.857870764793	1.306848598295
0	1857	3241.91118912573	1.372229743865
0	1861	3249.01814852864	0.591342072352
0	1865	3255.398516619923	1.967171248049
0	1869	3262.914448512016	1.978102030698
0	1873	3269.660058526086	0.979751283885
0	1877	3276.987835419477	1.934776139795
0	1881	3285.736894656784	1.169045140385
0	1885	3292.594628761053	1.360845330171
0	1889	3298.911492199749	0.829374857363
0	1893	3304.412874512952	1.120122861932
0	1897	3311.776933109732	1.775230586296
0	1901	3318.916449176958	1.524130889913
0	1905	3325.746164406994	1.743937186664
0	1909	3333.718785226922	1.696335800458
0	1913	3340.535843381304	1.531698891078
0	1917	3347.228938579787	0.992133497493
0	1921	3353.055509075517	1.656923873816
0	1925	3360.040629085614	1.372393908328
0	1929	3368.292816202617	1.907913245494
0	1933	3376.328697469314	0.742344541475
0	1937	3382.493457953558	0.915727388463
0	1941	3390.315856875266	0.584037836059
0	1945	3396.338562472836	0.881504384801
0	1949	3403.005391304727	1.228874285822
0	1953	3410.693122070745	1.613766743452
0	1957	3417.053422409688	1.371049560374
0	1961	3423.888492983413	1.246486292919
0	1965	3429.752782511521	0.905365119572
0	1969	3436.804782260089	1.589247531258
0	1973	3443.161546883635	1.728560272721
0	1977	3451.874979996934	1.671546642785
0	1981	3458.420615221603	1.353084837901
0	1985	3466.097845721753	1.120978953899
0	1989	3473.008437672277	1.682983756298
0	1993	3481.23858919879	1.892026380752
0	1997	3489.043438814692	1.499052475905
1	3	5.507721540285	2.220047668787
1	7	12.49206279777	0.718990001595
1	11	17.807967222762	1.239385238267
1	15	24.826869277052	1.433424863033
1	19	31.50790860993	1.756283189286
1	23	38.770414890257	2.269860828645
1	27	46.865088152119	0.618765051593
1	31	52.144036084997	2.854432011489
1	35	59.762507715613	1.281612435239
1	39	67.024438994123	1.138117031194
1	43	73.940753417323	2.301402691635
1	47	80.906140746665	1.539347571786
1	51	88.380233816802	1.353737311554
1	55	94.783572143874	2.739133290132
1	59	102.519765212084	0.903761519701
1	63	108.951507642865	1.768975788844
1	67	116.540018729051	1.859925527941
1	71	124.294314666652	2.889659314067
1	75	131.942836120958	1.407911057002
1	79	138.40000647062	1.958781654947
1	83	145.277167217108	1.89000111958
1	87	152.310418525595	1.579348865896
1	91	158.785033662338	2.284171889303
1	95	166.845374575118	0.661928221933
1	99	173.341352595017	2.512157451245
1	103	180.650828481885	2.210162025993
1	107	187.842950947118	2.533408659627
1	111	196.138436482871	1.941549757146
1	115	202.914619419026	0.645652476349
1	119	208.133454506053	1.595290293451
1	123	214.453086772817	1.46022628597
1	127	221.40386462491	1.737304765382
1	131	228.14634046494	1.297135505127
1	135	234.766656024265	2.878172611352
1	139	242.275462799938	1.781719022081
1	143	249.537458489765	1.896148885251
1	147	257.070966868079	1.588061616174
1	151	263.849306021584	0.583538295003
1	155	269.209097530227	2.960637373733
1	159	276.839734947541	1.627125670901
1	163	283.513512518257	2.572622154374
1	167	291.106677147327	0.722989158938
1	171	296.548059958616	2.157134236884
1	175	304.537385628093	2.935972969397
1	179	312.78329446516	2.894727508072
1	183	320.695680430276	2.3909701542
1	187	327.896233268199	0.787377690547
1	191	333.61433171155	2.403605941916
1	195	341.997291591252	1.890542266308
1	199	348.404917286826	1.100924281171
1	203	354.97337478411	0.964280347223
1	207	361.346455984866	0.85892378015
1	211	366.86829979485	0.746216019732
1	215	372.138325582842	1.026937600807
1	219	378.870377021959	2.679923855583
1	223	386.926959345584	0.559385289787
1	227	392.949398209691	0.534516280866
1	231	398.228075614665	1.615231947624
1	235	405.345875649713	1.982205518987
1	239	412.422122558113	1.273861472844
1	243	419.276981810573	2.600683167228
1	247	427.046175286057	1.162282987032
1	251	432.873217623913	1.623796273023
1	255	439.74111576681	1.518326543272
1	259	446.532888898859	1.52519949316
1	263	452.872851480264	2.572640419938
1	267	460.214031470474	2.944540926954
1	271	468.757540767198	0.769276550971
1	275	475.342465857859	2.310393063934
1	279	482.154246152612	1.616846023942
1	283	489.361948597362	2.515459963586
1	287	497.355740399799	1.248360975995
1	291	504.48047772667	2.024001783109
1	295	512.194593789173	2.737187390565
1	299	519.604342074949	1.334512011497
1	303	525.635722805397	2.798465761705
1	307	533.241321427631	1.686738102697
1	311	539.876174338395	1.178924782551
1	315	546.179424806033	2.682542690425
1	319	553.44496885431	1.358670558664
1	323	560.664750613854	1.614090899937
1	327	567.012546206009	1.613019928453
1	331	573.226099601714	1.360050304909
1	335	579.547109114122	1.159613300231
1	339	586.167403248254	1.150315553066
1	343	592.407083171186	1.113630547887
1	347	598.368222654913	0.869454584434
1	351	604.052100361092	0.603209188674
1	355	610.608309637406	1.789066030877
1	359	617.62291422172	2.578274315572
1	363	625.575756640057	1.033381628338
1	367	632.186092108371	2.963328682934
1	371	639.710698449751	2.687615927542
1	375	647.311312556267	1.353319917805
1	379	654.284975728951	2.270995167317
1	383	661.917638897313	0.61728393496
1	387	667.959032569429	1.660606011399
1	391	675.532228904543	2.151057751151
1	395	683.226091991062	0.970952279284
1	399	689.14268980152	2.32043859968
1	403	697.369156016038	1.94833571685
1	407	703.988896130469	2.254704938503
1	411	712.186607963174	2.067021008232
1	415	719.680229654072	2.111651267158
1	419	726.452413324036	1.052404927439
1	423	732.924424308587	2.844841684098
1	427	741.610464912142	2.253282983555
1	431	749.736541737688	1.749082997092
1	435	756.589904945811	2.659373844624
1	439	764.402441286017	1.367469814257
1	443	771.224647614524	2.060083892546
1	447	778.033924425255	0.658536166418
1	451	784.174688396394	2.493192301597
1	455	791.836540973513	0.649631887907
1	459	797.63511003647	2.861429004231
1	463	806.423769080545	0.882232488482
1	467	811.964620319427	2.75396952359
1	471	819.595553915015	2.822510099038
1	475	828.103701304177	1.707869234495
1	479	835.659957370719	2.024041618104
1	483	842.293107721021	2.145267226268
1	487	848.993361212078	2.380117413239
1	491	856.20291267149	1.378888480947
1	495	862.515187156618	0.93294494797
1	499	868.197953071793	1.336223321385
1	503	874.909268212969	2.52036917035
1	507	883.227561413658	1.812370291562
1	511	890.260150024433	2.646184467711
1	515	898.066173219703	1.389372982201
1	519	905.090710629591	1.887339739595
1	523	912.463494399212	1.340077461326
1	527	918.422152711194	2.013648569235
1	531	925.096885954961	1.453419785947
1	535	931.983045424801	0.664349459228
1	539	938.215236190591	0.856210534228
1	543	944.70656800666	0.999677764019
1	547	950.529409771553	2.290366108762
1	551	958.448010566063	1.197051915922
1	555	964.881429192145	0.930490103317
1	559	971.058926988859	1.49573501735
1	563	978.226287711994	2.10357992514
1	567	986.172332196031	2.917038464919
1	571	994.054406648735	2.955197258387
1	575	1002.904605888646	2.010062299203
1	579	1009.971537444625	1.386815872509
1	583	1016.030493326253	0.727734446526
1	587	1021.445824220894	1.628004886559
1	591	1028.8357916635	2.73103061493
1	595	1036.391188930488	2.861356476904
1	599	1045.192725594855	2.137879140326
1	603	1051.83563627361	1.363132358645
1	607	1058.130695099129	2.008519168128
1	611	1065.710441668868	0.998853685567
1	615	1072.383345735959	1.880503996625
1	619	1079.872231826537	1.345811265172
1	623	1086.683535839666	1.735412379028
1	627	1094.331651895076	0.680647052475
1	631	1100.422185726233	2.875719939591
1	635	1108.813266588609	2.384036248084
1	639	1116.60900182929	0.63135618181
1	643	1122.992520484726	1.469950481085
1	647	1129.858003404925	2.223065160331
1	651	1137.524870951778	1.451310045202
1	655	1144.130226402428	1.352752155624
1	659	1150.139049494174	1.628522294457
1	663	1157.346287999885	1.45377634163
1	667	1164.116066765972	1.972530324245
1	671	1171.36591593735	0.804922729265
1	675	1177.199347931427	1.594901189208
1	679	1184.365885130247	2.207580003422
1	683	1191.794720444131	1.660518311663
1	687	1199.132126776503	1.02240268793
1	691	1205.079847129646	2.510255972855
1	695	1212.454931787683	1.59418951557
1	699	1219.477225012032	1.43930645904
1	703	1226.521680473236	1.825788592803
1	707	1233.514749371565	0.752696970128
1	711	1239.640113642906	1.300341804861
1	715	1246.136051948416	2.587308389018
1	719	1253.674003697467	1.003658920643
1	723	1260.662358781789	1.01018795697
1	727	1266.723645458231	2.041616616305
1	731	1274.711239555036	1.564088686835
1	735	1281.581749815378	2.7162868327
1	739	1289.148503420293	2.466862056288
1	743	1296.239898902365	1.489017579122
1	747	1303.025693821488	2.1959287395
1	751	1310.139912799117	1.127508312464
1	755	1316.914170106175	2.911759261158
1	759	1324.510423460393	2.69563561026
1	763	1332.580949414987	2.286603098735
1	767	1339.433089522528	2.310943705495
1	771	1347.460028483415	1.526670247666
1	775	1354.321808423963	2.61941289308
1	779	1361.855498267454	2.452569804853
1	783	1370.043277264922	2.267209960963
1	787	1377.178686949076	1.748775877175
1	791	1384.189995925991	2.304138992447
1	795	1391.151343307109	2.87712422444
1	799	1399.12134077563	1.591129847919
1	803	1405.968795267866	2.242736087763
1	807	1413.210622266867	1.188170899521
1	811	1419.549050402829	2.996810228913
1	815	1427.74282467412	1.969684137846
1	819	1435.477728716681	2.028692582506
1	823	1442.166804563838	2.239090240444
1	827	1450.383751571762	0.564717601635
1	831	1456.477224028903	1.857359917602
1	835	1463.755888420275	0.978315014625
1	839	1469.699206533494	2.436351532931
1	843	1477.10431414994	0.588690341217
1	847	1482.26108821691	2.348172545433
1	851	1489.307406558189	2.681179263862
1	855	1497.780874931486	0.501934053143
1	859	1503.610787178273	2.476674617617
1	863	1511.714299405575	2.88613852649
1	867	1519.806665105861	1.37066575943
1	871	1526.121363377431	0.61225041002
1	875	1532.004063155036	2.367531212629
1	879	1539.283718658145	0.816417086869
1	883	1544.894486016709	1.575434575323
1	887	1551.243700686724	1.998960126773
1	891	1559.004192657417	1.253475493402
1	895	1565.585087668963	2.254147799802
1	899	1572.69730046659	0.839358944912
1	903	1579.18766513781	1.897135981824
1	907	1586.082062917294	0.80807837029
1	911	1592.704406946663	0.857298736926
1	915	1598.568592913098	2.691218608641
1	919	1606.525707883875	0.689870421309
1	923	1613.145674565805	0.844710675417
1	927	1619.220112267297	2.449202405522
1	931	1627.412718809557	1.524199394742
1	935	1634.27760233986	2.484150010976
1	939	1642.138972039333	0.721690439503
1	943	1648.254577693295	1.893500630511
1	947	1655.8743925367	2.641121333698
1	951	1664.296536989509	1.769493297441
1	955	1670.949495991342	2.664431972778
1	959	1678.321165447937	2.404129991308
1	963	1685.563629427225	2.835058100289
1	967	1694.21738631511	1.858983432292
1	971	1701.88826778496	2.185415147222
1	975	1708.736737049067	1.585004177876
1	979	1715.655996338347	0.575446062838
1	983	1720.988140817731	1.959903902141
1	987	1727.938762596342	0.962265291135
1	991	1733.745591491344	0.950365992147
1	995	1739.823404952185	2.259683896671
1	999	1746.809178555151	2.225170922582
1	1003	1754.511409612139	2.282211976824
1	1007	1761.362923621199	1.52259412175
1	1011	1767.418528478242	2.785188286914
1	1015	1775.978588413562	1.130105903838
1	1019	1781.632929670157	1.837415018934
1	1023	1789.037885183816	1.346036113799
1	1027	1795.484216775977	2.205897775246
1	1031	1802.276955937617	1.254899754538
1	1035	1808.306250780704	0.536359333899
1	1039	1813.733516067033	1.875662006903
1	1043	1820.746372469816	1.124687335803
1	1047	1827.070555601151	2.79775851185
1	1051	1835.347302619832	2.082234362722
1	1055	1843.292904951491	1.465965341311
1	1059	1850.244701206333	2.818885499262
1	1063	1858.52271730406	2.502074865159
1	1067	1866.9238945198	2.245371059515
1	1071	1875.070066856452	1.221153138438
1	1075	1881.714068234315	1.094814679353
1	1079	1888.485567083	2.231281268876
1	1083	1895.755106510478	0.76063425059
1	1087	1901.546701886575	1.750081011094
1	1091	1908.429798552301	2.984837193624
1	1095	1917.046452775714	2.371752931038
1	1099	1924.281948865624	1.299417594098
1	1103	1930.152044115587	0.777923821122
1	1107	1935.622458310564	2.75039461453
1	1111	1943.066607381798	2.745928151533
1	1115	1950.384331625303	2.452575037722
1	1119	1957.818357847165	1.358490457176
1	1123	1965.007731024292	1.606443033204
1	1127	1971.515483049792	1.339161619078
1	1131	1977.744081245385	2.4170144503
1	1135	1984.825303916469	0.841879284242
1	1139	1990.594416235922	2.195953428862
1	1143	1998.546720653306	2.287760611624
1	1147	2005.87679253018	0.702145603835
1	1151	2012.463832078153	2.709180224454
1	1155	2019.78985945927	2.22634416318
1	1159	2026.674991803244	1.960896729259
1	1163	2033.162842479418	1.838475263328
1	1167	2039.83854232158	0.530675214948
1	1171	2045.539408692624	1.790480619646
1	1175	2052.613930662977	1.476538938121
1	1179	2059.103446708293	2.618173791678
1	1183	2066.36608983716	2.493002047529
1	1187	2073.771519418456	2.902547009406
1	1191	2081.562171770259	2.02966503636
1	1195	2089.2688459591	1.049381008022
1	1199	2095.608721803523	1.148865389521
1	1203	2101.55036182131	1.304207909969
1	1207	2107.515595434582	2.373351655086
1	1211	2115.042308009346	2.919128759066
1	1215	2122.661435510731	2.838657781947
1	1219	2130.711623456329	2.952486617258
1	1223	2139.291634359164	2.513435829431
1	1227	2147.001519787125	1.638828285038
1	1231	2153.696282534394	2.713596815709
1	1235	2160.948013674235	0.823685149197
1	1239	2166.733306940762	1.536967653199
1	1243	2173.299954337068	2.073651987128
1	1247	2181.245788543602	0.818696895847
1	1251	2186.889907430741	2.56803542329
1	1255	2194.427238401724	2.851273472304
1	1259	2202.929552431684	2.451090470538
1	1263	2210.830178533564	2.514025151148
1	1267	2218.555766447331	1.906298498623
1	1271	2225.869593291776	1.483148977975
1	1275	2232.675845524761	1.364286533324
1	1279	2239.992784292553	0.748010985088
1	1283	2245.405124029494	2.339982506935
1	1287	2253.368699396145	1.710305510904
1	1291	2260.103534509544	2.823512004805
1	1295	2268.485767514328	2.581736359978
1	1299	2275.601643532165	2.806503042346
1	1303	2283.444860201562	2.061750193359
1	1307	2290.095070109237	2.117572609102
1	1311	2296.740708132507	1.328539337963
1	1315	2303.253003349295	1.81160514662
1	1319	2309.957828720449	0.760323765106
1	1323	2316.477648959262	2.547886576038
1	1327	2323.959088085452	2.939436494024
1	1331	2331.557162386831	2.957114072749
1	1335	2340.046860969625	1.905446328572
1	1339	2346.520856253453	1.135755194235
1	1343	2352.903646064456	2.362862026901
1	1347	2359.864249451318	1.642858714447
1	1351	2366.905320556717	1.958234125166
1	1355	2373.865180251653	0.983239732566
1	1359	2379.987717411829	1.253579130978
1	1363	2386.740662541006	1.048078618594
1	1367	2392.417035215998	2.703888713848
1	1371	2401.054796219685	0.586821082514
1	1375	2406.374342268331	2.725003274507
1	1379	2413.798431511967	1.622243507416
1	1383	2420.277529080164	1.583065469866
1	1387	2427.522114586666	1.158146656933
1	1391	2433.216891800168	0.823095061467
1	1395	2439.027755438698	2.68014798651
1	1399	2447.068248981259	2.868101268075
1	1403	2455.832083559244	0.93617893476
1	1407	2461.489715775007	0.906780852936
1	1411	2468.199769024269	2.582700069877
1	1415	2476.360137155393	1.259433687781
1	1419	2483.058851249862	2.123079712153
1	1423	2489.839089461599	2.719110755832
1	1427	2497.323759642194	2.875189996674
1	1431	2504.715368888222	1.061989663402
1	1435	2510.706957499844	1.479299118044
1	1439	2517.808509256689	1.821674461942
1	1443	2525.000595211166	1.144296632963
1	1447	2530.869031682259	0.699259443907
1	1451	2536.252088561535	0.901745543932
1	1455	2542.626644488887	2.560205480666
1	1459	2550.658568096345	1.744392707013
1	1463	2558.290503481285	1.668701966526
1	1467	2565.629099334356	1.755972089712
1	1471	2572.98943673435	1.266104604118
1	1475	2579.362287287134	1.573295343667
1	1479	2586.081051944288	2.864885349525
1	1483	2594.31234540115	2.530385234975
1	1487	2602.408716030068	1.777166107902
1	1491	2610.073585702337	0.514360992354
1	1495	2615.147476558338	1.372804789688
1	1499	2622.097978114847	2.822810289916
1	1503	2630.018428772453	2.615913914749
1	1507	2637.18926352984	2.697277843952
1	1511	2644.510735105487	1.826929509523
1	1515	2651.755689334936	1.078033800703
1	1519	2657.382368567164	2.531280382653
1	1523	2665.043552935703	2.800536899129
1	1527	2673.409787079899	2.371879087412
1	1531	2680.409271645823	1.509699574206
1	1535	2686.746417968997	0.910558210569
1	1539	2693.189335503147	0.891901445109
1	1543	2698.803823509367	0.656634399318
1	1547	2704.022317032676	0.867514833924
1	1551	2710.158658853612	0.783130235039
1	1555	2715.468322531899	0.689292026917
1	1559	2720.729565245562	0.825175498147
1	1563	2726.534801785017	0.548223684425
1	1567	2733.019470187018	2.180130647728
1	1571	2739.763102106282	1.617588711786
1	1575	2747.057453579616	0.605755478144
1	1579	2753.541903266448	1.747235763003
1	1583	2759.829623737021	2.712089111563
1	1587	2767.801576580035	1.391601544572
1	1591	2774.294345233936	2.882283043116
1	1595	2782.500901516873	2.586314146873
1	1599	2790.70558780024	1.364479484735
1	1603	2796.864885241722	1.396294036647
1	1607	2802.904909142407	2.662883729907
1	1611	2811.540007746543	2.600199562265
1	1615	2819.658557749468	1.879459050368
1	1619	2827.095208867335	1.689604579122
1	1623	2834.695103339035	2.980410025455
1	1627	2842.946913742459	1.445067635039
1	1631	2849.091892052208	2.147357094334
1	1635	2856.698766679152	1.246845204267
1	1639	2863.774515179566	0.76364865189
1	1643	2870.518805094411	0.816440934548
1	1647	2876.690543431554	1.387383279623
1	1651	2883.218809640731	0.687998120673
1	1655	2888.790811638112	2.680170720094
1	1659	2896.87584598595	2.122441040236
1	1663	2904.212477214399	2.190641026944
1	1667	2911.41987660038	1.350899754441
1	1671	2917.431128793626	2.632179889013
1	1675	2925.350892067418	1.854376680683
1	1679	2932.043725562046	2.079629096668
1	1683	2939.170115640966	1.38915907545
1	1687	2945.453973427645	1.135495308088
1	1691	2951.096369686534	0.832153966883
1	1695	2956.442331918978	1.279248877079
1	1699	2963.152979553208	0.865961979842
1	1703	2969.107571965662	1.328017878812
1	1707	2975.853079091405	1.258665337926
1	1711	2982.192608159382	1.832378950901
1	1715	2989.892111417252	1.110094735166
1	1719	2995.744426985035	1.906788991881
1	1723	3003.554882203226	2.758202207158
1	1727	3011.65745566657	1.741551728453
1	1731	3018.572065825222	2.186528802384
1	1735	3025.930373219421	2.09200337308
1	1739	3033.5528307748	2.558406720753
1	1743	3041.788048263404	2.245898515219
1	1747	3048.700042202717	2.599909558892
1	1751	3056.485386446232	0.694412231795
1	1755	3062.577084907794	1.801974714152
1	1759	3069.362590481293	2.425153831835
1	1763	3076.918060050228	1.125663660467
1	1767	3083.571501207653	1.180935262353
1	1771	3090.584949308772	2.340441850945
1	1775	3098.24902538664	1.099766761879
1	1779	3104.981273708164	2.213194111362
1	1783	3111.925968742461	2.802092621685
1	1787	3119.57386933977	2.514286457561
1	1791	3126.906746325546	1.127624180051
1	1795	3133.061588211331	1.529228043626
1	1799	3140.405603500662	2.195663925493
1	1803	3148.599854498516	1.324280963861
1	1807	3155.87722455151	0.845678719459
1	1811	3162.328311864166	1.625303231529
1	1815	3168.649618778839	2.415405061445
1	1819	3175.903496908834	1.708045468666
1	1823	3182.855043836283	2.028206595685
1	1827	3190.319663978759	1.386172351893
1	1831	3196.779673500797	2.72420412174
1	1835	3204.225548592392	2.139393325313
1	1839	3212.069645012026	1.31292682502
1	1843	3218.55341746192	1.708604999701
1	1847	3225.662144199824	1.231172437663
1	1851	3231.598828469049	2.259042295744
1	1855	3239.164719363088	0.746469762642
1	1859	3245.283418869595	1.734729659045
1	1863	3251.609490600992	1.789026018931
1	1867	3259.365687867972	1.548760644044
1	1871	3266.892550542714	0.767507983372
1	1875	3272.639809809971	2.348025609506
1	1879	3280.922611559272	2.814283097512
1	1883	3288.905939797169	1.688688963884
1	1887	3295.955474091224	0.956018108525
1	1891	3301.740867057112	0.67200745584
1	1895	3307.532997374884	2.243935734848
1	1899	3315.552163696028	1.36428548093
1	1903	3322.440580066871	1.305584340123
1	1907	3329.490101593658	2.228683633264
1	1911	3337.41512102738	1.120722353924
1	1915	3344.067542272382	1.161396307405
1	1919	3350.22107207728	0.834436998237
1	1923	3356.712432949333	1.328196136281
1	1927	3363.413022993942	2.879793208675
1	1931	3372.200729448111	2.127968021203
1	1935	3379.071042010789	1.422415942769
1	1939	3385.409185342021	2.906671533245
1	1943	3392.899894711325	1.438667761511
1	1947	3399.220066857637	1.78532444709
1	1951	3406.234265590549	2.458856480196
1	1955	3414.306888814197	0.746533595491
1	1959	3420.424471970062	1.464021013351
1	1963	3427.134979276332	0.617803235189
1	1967	3432.658147631093	2.146634628996
1	1971	3440.394029791347	0.767517092288
1	1975	3446.890107156356	2.984872840578
1	1979	3455.546526639719	0.874088581884
1	1983	3461.773700059504	2.324145662249
1	1987	3469.218824675652	1.789612996625
1	1991	3476.691421428575	2.547167770215
1	1995	3485.130615579542	1.91282323515
1	1999	3492.542491290597	2.947765223915
2	4	7.727769209072	7.727769209072
2	8	13.211052799365	5.483283590293
2	12	19.047352461029	5.836299661664
2	16	26.260294140085	7.212941679056
2	20	33.264191799216	7.003897659131
2	24	41.040275718902	7.776083919686
2	28	47.483853203712	6.44357748481
2	32	54.998468096486	7.514614892774
2	36	61.044120150852	6.045652054366
2	40	68.162556025317	7.118435874465
2	44	76.242156108958	8.079600083641
2	48	82.445488318451	6.203332209493
2	52	89.733971128356	7.288482809905
2	56	97.522705434006	7.78873430565
2	60	103.423526731785	5.900821297779
2	64	110.720483431709	7.296956699924
2	68	118.399944256992	7.679460825283
2	72	127.183973980719	8.784029723727
2	76	133.35074717796	6.166773197241
2	80	140.358788125567	7.008040947607
2	84	147.167168336688	6.808380211121
2	88	153.889767391491	6.722599054803
2	92	161.069205551641	7.17943816015
2	96	167.507302797051	6.43809724541
2	100	175.853510046262	8.346207249211
2	104	182.860990507878	7.007480461616
2	108	190.376359606745	7.515369098867
2	112	198.079986240017	7.703626633272
2	116	203.560271895375	5.480285655358
2	120	209.728744799504	6.168472904129
2	124	215.913313058787	6.184568259283
2	128	223.141169390292	7.227856331505
2	132	229.443475970067	6.302306579775
2	136	237.644828635617	8.20135266555
2	140	244.057181822019	6.412353186402
2	144	251.433607375016	7.376425552997
2	148	258.659028484253	7.225421109237
2	152	264.432844316587	5.773815832334
2	156	272.16973490396	7.736890587373
2	160	278.466860618442	6.297125714482
2	164	286.086134672631	7.619274054189
2	168	291.829666306265	5.743531633634
2	172	298.7051941955	6.875527889235
2	176	307.47335859749	8.76816440199
2	180	315.678021973232	8.204663375742
2	184	323.086650584476	7.408628611244
2	188	328.683610958746	5.59696037427
2	192	336.017937653466	7.33432669472
2	196	343.88783385756	7.869896204094
2	200	349.505841567997	5.618007710437
2	204	355.937655131333	6.431813563336
2	208	362.205379765016	6.267724633683
2	212	367.614515814582	5.409136049566
2	216	373.165263183649	5.550747369067
2	220	381.550300877542	8.385037693893
2	224	387.486344635371	5.936043757829
2	228	393.483914490557	5.997569855186
2	232	399.843307562289	6.359393071732
2	236	407.3280811687	7.484773606411
2	240	413.695984030957	6.367902862257
2	244	421.877664977801	8.181680946844
2	248	428.208458273089	6.330793295288
2	252	434.497013896936	6.288555623847
2	256	441.259442310082	6.762428413146
2	260	448.058088392019	6.798646081937
2	264	455.445491900202	7.387403508183
2	268	463.158572397428	7.713080497226
2	272	469.526817318169	6.368244920741
2	276	477.652858921793	8.126041603624
2	280	483.771092176554	6.118233254761
2	284	491.877408560948	8.106316384394
2	288	498.604101375794	6.726692814846
2	292	506.504479509779	7.900378133985
2	296	514.931781179738	8.427301669959
2	300	520.938854086446	6.007072906708
2	304	528.434188567102	7.495334480656
2	308	534.928059530328	6.493870963226
2	312	541.055099120946	6.127039590618
2	316	548.861967496458	7.806868375512
2	320	554.803639412974	5.941671916516
2	324	562.278841513791	7.475202100817
2	328	568.625566134462	6.346724620671
2	332	574.586149906623	5.960583772161
2	336	580.706722414353	6.12057250773
2	340	587.31771880132	6.610996386967
2	344	593.520713719073	6.202994917753
2	348	599.237677239347	5.716963520274
2	352	604.655309549766	5.417632310419
2	356	612.397375668283	7.742066118517
2	360	620.201188537292	7.803812869009
2	364	626.609138268395	6.407949731103
2	368	635.149420791305	8.54028252291
2	372	642.398314377293	7.248893585988
2	376	648.664632474072	6.266318096779
2	380	656.555970896268	7.891338422196
2	384	662.534922832273	5.978951936005
2	388	669.619638580828	7.084715748555
2	392	677.683286655694	8.063648074866
2	396	684.197044270346	6.513757614652
2	400	691.4631284012	7.266084130854
2	404	699.317491732888	7.854363331688
2	408	706.243601068972	6.926109336084
2	412	714.253628971406	8.010027902434
2	416	721.79188092123	7.538251949824
2	420	727.504818251475	5.712937330245
2	424	735.769265992685	8.26444774121
2	428	743.863747895697	8.094481903012
2	432	751.48562473478	7.621876839083
2	436	759.249278790435	7.763654055655
2	440	765.769911100274	6.520632309839
2	444	773.28473150707	7.514820406796
2	448	778.692460591673	5.407729084603
2	452	786.667880697991	7.975420106318
2	456	792.48617286142	5.818292163429
2	460	800.496539040701	8.010366179281
2	464	807.306001569027	6.809462528326
2	468	814.718589843017	7.41258827399
2	472	822.418064014053	7.699474171036
2	476	829.811570538672	7.393506524619
2	480	837.683998988823	7.872428450151
2	484	844.438374947289	6.754375958466
2	488	851.373478625317	6.935103678028
2	492	857.581801152437	6.20832252712
2	496	863.448132104588	5.866330952151
2	500	869.534176393178	6.08604428859
2	504	877.429637383319	7.895460990141
2	508	885.03993170522	7.610294321901
2	512	892.906334492144	7.866402786924
2	516	899.455546201904	6.54921170976
2	520	906.978050369186	7.522504167282
2	524	913.803571860538	6.825521491352
2	528	920.435801280429	6.632229419891
2	532	926.550305740908	6.114504460479
2	536	932.647394884029	6.097089143121
2	540	939.071446724819	6.42405184079
2	544	945.706245770679	6.63479904586
2	548	952.819775880315	7.113530109636
2	552	959.645062481985	6.82528660167
2	556	965.811919295462	6.166856813477
2	560	972.554662006209	6.742742710747
2	564	980.329867637134	7.775205630925
2	568	989.08937066095	8.759503023816
2	572	997.009603907122	7.920233246172
2	576	1004.914668187849	7.905064280727
2	580	1011.358353317134	6.443685129285
2	584	1016.758227772779	5.399874455645
2	588	1023.073829107453	6.315601334674
2	592	1031.56682227843	8.492993170977
2	596	1039.252545407392	7.685723128962
2	600	1047.330604735181	8.078059327789
2	604	1053.198768632255	5.868163897074
2	608	1060.139214267257	6.940445635002
2	612	1066.709295354435	6.570081087178
2	616	1074.263849732584	7.554554378149
2	620	1081.218043091709	6.954193359125
2	624	1088.418948218694	7.200905126985
2	628	1095.012298947551	6.593350728857
2	632	1103.297905665824	8.285606718273
2	636	1111.197302836693	7.899397170869
2	640	1117.2403580111	6.043055174407
2	644	1124.462470965811	7.222112954711
2	648	1132.081068565256	7.618597599445
2	652	1138.97618099698	6.895112431724
2	656	1145.482978558052	6.506797561072
2	660	1151.767571788631	6.284593230579
2	664	1158.800064341515	7.032492552884
2	668	1166.088597090217	7.288532748702
2	672	1172.170838666615	6.082241576398
2	676	1178.794249120635	6.62341045402
2	680	1186.573465133669	7.779216013034
2	684	1193.455238755794	6.881773622125
2	688	1200.154529464433	6.699290708639
2	692	1207.590103102501	7.435573638068
2	696	1214.049121303253	6.459018200752
2	700	1220.916531471072	6.867410167819
2	704	1228.347469066039	7.430937594967
2	708	1234.267446341693	5.919977275654
2	712	1240.940455447767	6.673009106074
2	716	1248.723360337434	7.782904889667
2	720	1254.67766261811	5.954302280676
2	724	1261.672546738759	6.994884120649
2	728	1268.765262074536	7.092715335777
2	732	1276.275328241871	7.510066167335
2	736	1284.298036648078	8.022708406207
2	740	1291.615365476581	7.317328828503
2	744	1297.728916481487	6.113551004906
2	748	1305.221622560988	7.492706079501
2	752	1311.267421111581	6.045798550593
2	756	1319.825929367333	8.558508255752
2	760	1327.206059070653	7.38012970332
2	764	1334.867552513722	7.661493443069
2	768	1341.744033228023	6.876480714301
2	772	1348.986698731081	7.242665503058
2	776	1356.941221317043	7.954522585962
2	780	1364.308068072307	7.366846755264
2	784	1372.310487225885	8.002419153578
2	788	1378.927462826251	6.616975600366
2	792	1386.494134918438	7.566672092187
2	796	1394.028467531549	7.534332613111
2	800	1400.712470623549	6.684003092
2	804	1408.211531355629	7.49906073208
2	808	1414.398793166388	6.187261810759
2	812	1422.545860631742	8.147067465354
2	816	1429.712508811966	7.166648180224
2	820	1437.506421299187	7.793912487221
2	824	1444.405894804282	6.899473505095
2	828	1450.948469173397	6.542574369115
2	832	1458.334583946505	7.386114773108
2	836	1464.7342034349	6.399619488395
2	840	1472.135558066425	7.401354631525
2	844	1477.693004491157	5.557446424732
2	848	1484.609260762343	6.916256271186
2	852	1491.988585822051	7.379325059708
2	856	1498.282808984629	6.294223162578
2	860	1506.08746179589	7.804652811261
2	864	1514.600437932065	8.512976136175
2	868	1521.177330865291	6.576892933226
2	872	1526.733613787451	5.55628292216
2	876	1534.371594367665	7.637980580214
2	880	1540.100135745014	5.728541377349
2	884	1546.469920592032	6.369784847018
2	888	1553.242660813497	6.772740221465
2	892	1560.257668150819	7.015007337322
2	896	1567.839235468765	7.581567317946
2	900	1573.536659411502	5.697423942737
2	904	1581.084801119634	7.548141708132
2	908	1586.890141287584	5.80534016795
2	912	1593.561705683589	6.671564396005
2	916	1601.259811521739	7.69810583815
2	920	1607.215578305184	5.955766783445
2	924	1613.990385241222	6.774806936038
2	928	1621.669314672819	7.678929431597
2	932	1628.936918204299	7.26760353148
2	936	1636.761752350836	7.824834146537
2	940	1642.860662478836	6.098910128
2	944	1650.148078323806	7.28741584497
2	948	1658.515513870398	8.367435546592
2	952	1666.06603028695	7.550516416552
2	956	1673.61392796412	7.54789767717
2	960	1680.725295439245	7.111367475125
2	964	1688.398687527514	7.673392088269
2	968	1696.076369747402	7.677682219888
2	972	1704.073682932182	7.99731318478
2	976	1710.321741226943	6.248058294761
2	980	1716.231442401185	5.909701174242
2	984	1722.948044719872	6.716602318687
2	988	1728.901027887477	5.952983167605
2	992	1734.695957483491	5.794929596014
2	996	1742.083088848856	7.387131365365
2	1000	1749.034349477733	6.951260628877
2	1004	1756.793621588963	7.75927211123
2	1008	1762.885517742949	6.091896153986
2	1012	1770.203716765156	7.318199022207
2	1016	1777.1086943174	6.904977552244
2	1020	1783.470344689091	6.361650371691
2	1024	1790.383921297615	6.913576608524
2	1028	1797.690114551223	7.306193253608
2	1032	1803.531855692155	5.841741140932
2	1036	1808.842610114603	5.310754422448
2	1040	1815.609178073936	6.766567959333
2	1044	1821.871059805619	6.261881731683
2	1048	1829.868314113001	7.997254307382
2	1052	1837.429536982554	7.561222869553
2	1056	1844.758870292802	7.329333310248
2	1060	1853.063586705595	8.304716412793
2	1064	1861.024792169219	7.961205463624
2	1068	1869.169265579315	8.144473410096
2	1072	1876.29121999489	7.121954415575
2	1076	1882.808882913668	6.517662918778
2	1080	1890.716848351876	7.907965438208
2	1084	1896.515740761068	5.798892409192
2	1088	1903.296782897669	6.781042136601
2	1092	1911.414635745925	8.117852848256
2	1096	1919.418205706752	8.003569960827
2	1100	1925.581366459722	6.16316075297
2	1104	1930.929967936709	5.348601476987
2	1108	1938.372852925094	7.442884988385
2	1112	1945.812535533331	7.439682608237
2	1116	1952.836906663025	7.024371129694
2	1120	1959.176848304341	6.339941641316
2	1124	1966.614174057496	7.437325753155
2	1128	1972.85464466887	6.240470611374
2	1132	1980.161095695685	7.306451026815
2	1136	1985.667183200711	5.506087505026
2	1140	1992.790369664784	7.123186464073
2	1144	2000.83448126493	8.044111600146
2	1148	2006.578938134015	5.744456869085
2	1152	2015.173012302607	8.594074168592
2	1156	2022.01620362245	6.843191319843
2	1160	2028.635888532503	6.619684910053
2	1164	2035.001317742746	6.365429210243
2	1168	2040.369217536528	5.367899793782
2	1172	2047.32988931227	6.960671775742
2	1176	2054.090469601098	6.760580288828
2	1180	2061.721620499971	7.631150898873
2	1184	2068.859091884689	7.137471384718
2	1188	2076.674066427862	7.814974543173
2	1192	2083.591836806619	6.917770378757
2	1196	2090.318226967122	6.726390160503
2	1200	2096.757587193044	6.439360225922
2	1204	2102.854569731279	6.096982538235
2	1208	2109.888947089668	7.034377358389
2	1212	2117.961436768412	8.072489678744
2	1216	2125.500093292678	7.538656524266
2	1220	2133.664110073587	8.164016780909
2	1224	2141.805070188595	8.140960115008
2	1228	2148.640348072163	6.835277883568
2	1232	2156.409879350103	7.76953127794
2	1236	2161.771698823432	5.361819473329
2	1240	2168.270274593961	6.498575770529
2	1244	2175.373606324196	7.103331730235
2	1248	2182.064485439449	6.690879115253
2	1252	2189.457942854031	7.393457414582
2	1256	2197.278511874028	7.820569019997
2	1260	2205.380642902222	8.102131028194
2	1264	2213.344203684712	7.96356078249
2	1268	2220.462064945954	7.117861261242
2	1272	2227.352742269751	6.890677323797
2	1276	2234.040132058085	6.687389788334
2	1280	2240.740795277641	6.700663219556
2	1284	2247.745106536429	7.004311258788
2	1288	2255.079004907049	7.33389837062
2	1292	2262.927046514349	7.8480416073
2	1296	2271.067503874306	8.140457359957
2	1300	2278.408146574511	7.340642700205
2	1304	2285.506610394921	7.09846382041
2	1308	2292.212642718339	6.706032323418
2	1312	2298.06924747047	5.856604752131
2	1316	2305.064608495915	6.995361025445
2	1320	2310.718152485555	5.65354398964
2	1324	2319.0255355353	8.307383049745
2	1328	2326.898524579476	7.872989044176
2	1332	2334.51427645958	7.615751880104
2	1336	2341.952307298197	7.438030838617
2	1340	2347.656611447688	5.704304149491
2	1344	2355.266508091357	7.609896643669
2	1348	2361.507108165765	6.240600074408
2	1352	2368.863554681883	7.356446516118
2	1356	2374.848419984219	5.984865302336
2	1360	2381.241296542807	6.392876558588
2	1364	2387.7887411596	6.547444616793
2	1368	2395.120923929846	7.332182770246
2	1372	2401.641617302199	6.520693372353
2	1376	2409.099345542838	7.457728240639
2	1380	2415.420675019383	6.321329476545
2	1384	2421.86059455003	6.439919530647
2	1388	2428.680261243599	6.819666693569
2	1392	2434.039986861635	5.359725618036
2	1396	2441.707903425208	7.667916563573
2	1400	2449.936350249334	8.228446824126
2	1404	2456.768262494004	6.83191224467
2	1408	2462.396496627943	5.628234133939
2	1412	2470.782469094146	8.385972466203
2	1416	2477.619570843174	6.837101749028
2	1420	2485.181930962015	7.562360118841
2	1424	2492.558200217431	7.376269255416
2	1428	2500.198949638868	7.640749421437
2	1432	2505.777358551624	5.578408912756
2	1436	2512.186256617888	6.408898066264
2	1440	2519.630183718631	7.443927100743
2	1444	2526.144891844129	6.514708125498
2	1448	2531.568291126166	5.423399282037
2	1452	2537.153834105467	5.585542979301
2	1456	2545.186849969553	8.033015864086
2	1460	2552.402960803358	7.216110833805
2	1464	2559.959205447811	7.556244644453
2	1468	2567.385071424068	7.425865976257
2	1472	2574.255541338468	6.8704699144
2	1476	2580.935582630801	6.680041292333
2	1480	2588.945937293813	8.010354663012
2	1484	2596.842730636125	7.896793342312
2	1488	2604.18588213797	7.343151501845
2	1492	2610.587946694691	6.402064556721
2	1496	2616.520281348026	5.932334653335
2	1500	2624.920788404763	8.400507056737
2	1504	2632.634342687202	7.713554282439
2	1508	2639.886541373792	7.25219868659
2	1512	2646.33766461501	6.451123241218
2	1516	2652.833723135639	6.496058520629
2	1520	2659.913648949817	7.079925814178
2	1524	2667.844089834832	7.930440885015
2	1528	2675.781666167311	7.937576332479
2	1532	2681.918971220029	6.137305052718
2	1536	2687.656976179566	5.738004959537
2	1540	2694.081236948256	6.42426076869
2	1544	2699.460457908685	5.379220960429
2	1548	2704.8898318666	5.429373957915
2	1552	2710.941789088651	6.051957222051
2	1556	2716.157614558816	5.215825470165
2	1560	2721.554740743709	5.397126184893
2	1564	2727.083025469442	5.528284725733
2	1568	2735.199600834746	8.116575365304
2	1572	2741.380690818068	6.181089983322
2	1576	2747.66320905776	6.282518239692
2	1580	2755.289139029451	7.625929971691
2	1584	2762.541712848584	7.252573819133
2	1588	2769.193178124607	6.651465276023
2	1592	2777.176628277052	7.983450152445
2	1596	2785.087215663746	7.910587386694
2	1600	2792.070067284975	6.982851621229
2	1604	2798.261179278369	6.191111993394
2	1608	2805.567792872314	7.306613593945
2	1612	2814.140207308808	8.572414436494
2	1616	2821.538016799836	7.397809491028
2	1620	2828.784813446457	7.246796646621
2	1624	2837.67551336449	8.890699918033
2	1628	2844.391981377498	6.716468013008
2	1632	2851.239249146542	6.847267769044
2	1636	2857.945611883419	6.706362736877
2	1640	2864.538163831456	6.592551948037
2	1644	2871.335246028959	6.797082197503
2	1648	2878.077926711177	6.742680682218
2	1652	2883.906807761404	5.828881050227
2	1656	2891.470982358206	7.564174596802
2	1660	2898.998287026186	7.52730466798
2	1664	2906.403118241343	7.404831215157
2	1668	2912.770776354821	6.367658113478
2	1672	2920.063308682639	7.292532327818
2	1676	2927.205268748101	7.141960065462
2	1680	2934.123354658714	6.918085910613
2	1684	2940.559274716416	6.435920057702
2	1688	2946.589468735733	6.030194019317
2	1692	2951.928523653417	5.339054917684
2	1696	2957.721580796057	5.79305714264
2	1700	2964.01894153305	6.297360736993
2	1704	2970.435589844474	6.416648311424
2	1708	2977.111744429331	6.676154584857
2	1712	2984.024987110283	6.913242680952
2	1716	2991.002206152418	6.977219042135
2	1720	2997.651215976916	6.649009824498
2	1724	3006.313084410384	8.661868433468
2	1728	3013.399007395023	7.085922984639
2	1732	3020.758594627606	7.359587232583
2	1736	3028.022376592501	7.263781964895
2	1740	3036.111237495553	8.088860903052
2	1744	3044.033946778623	7.92270928307
2	1748	3051.299951761609	7.266004982986
2	1752	3057.179798678027	5.879846916418
2	1756	3064.379059621946	7.199260943919
2	1760	3071.787744313128	7.408684691182
2	1764	3078.043723710695	6.255979397567
2	1768	3084.752436470006	6.708712759311
2	1772	3092.925391159717	8.172954689711
2	1776	3099.348792148519	6.423400988802
2	1780	3107.194467819526	7.845675671007
2	1784	3114.728061364146	7.53359354462
2	1788	3122.088155797331	7.360094433185
2	1792	3128.034370505597	5.946214708266
2	1796	3134.590816254957	6.55644574936
2	1800	3142.601267426155	8.010451171198
2	1804	3149.924135462377	7.322868036222
2	1808	3156.722903270969	6.798767808592
2	1812	3163.953615095695	7.230711824726
2	1816	3171.065023840284	7.111408744589
2	1820	3177.6115423775	6.546518537216
2	1824	3184.883250431968	7.271708054468
2	1828	3191.705836330652	6.822585898684
2	1832	3199.503877622537	7.798041291885
2	1836	3206.364941917705	6.861064295168
2	1840	3213.382571837046	7.017629919341
2	1844	3220.262022461621	6.879450624575
2	1848	3226.893316637487	6.631294175866
2	1852	3233.857870764793	6.964554127306
2	1856	3239.91118912573	6.053318360937
2	1860	3247.01814852864	7.10695940291
2	1864	3253.398516619923	6.380368091283
2	1868	3260.914448512016	7.515931892093
2	1872	3267.660058526086	6.74561001407
2	1876	3274.987835419477	7.327776893391
2	1880	3283.736894656784	8.749059237307
2	1884	3290.594628761053	6.857734104269
2	1888	3296.911492199749	6.316863438696
2	1892	3302.412874512952	5.501382313203
2	1896	3309.776933109732	7.36405859678
2	1900	3316.916449176958	7.139516067226
2	1904	3323.746164406994	6.829715230036
2	1908	3331.718785226922	7.972620819928
2	1912	3338.535843381304	6.817058154382
2	1916	3345.228938579787	6.693095198483
2	1920	3351.055509075517	5.82657049573
2	1924	3358.040629085614	6.985120010097
2	1928	3366.292816202617	8.252187117003
2	1932	3374.328697469314	8.035881266697
2	1936	3380.493457953558	6.164760484244
2	1940	3388.315856875266	7.822398921708
2	1944	3394.338562472836	6.02270559757
2	1948	3401.005391304727	6.666828831891
2	1952	3408.693122070745	7.687730766018
2	1956	3415.053422409688	6.360300338943
2	1960	3421.888492983413	6.835070573725
2	1964	3427.752782511521	5.864289528108
2	1968	3434.804782260089	7.051999748568
2	1972	3441.161546883635	6.356764623546
2	1976	3449.874979996934	8.713433113299
2	1980	3456.420615221603	6.545635224669
2	1984	3464.097845721753	7.67723050015
2	1988	3471.008437672277	6.910591950524
2	1992	3479.23858919879	8.230151526513
2	1996	3487.043438814692	7.804849615902

